

sim: ** simulation statistics **
sim_num_insn              100000001 # total number of instructions committed
sim_num_refs               24291217 # total number of loads and stores committed
sim_num_loads              21851916 # total number of loads committed
sim_num_stores         2439301.0000 # total number of stores committed
sim_num_branches            3245623 # total number of branches committed
sim_elapsed_time                 60 # total simulation time in seconds
sim_inst_rate          1666666.6833 # simulation speed (in insts/sec)
sim_total_insn            100040322 # total number of instructions executed
sim_total_refs             24308970 # total number of loads and stores executed
sim_total_loads            21869667 # total number of loads executed
sim_total_stores       2439303.0000 # total number of stores executed
sim_total_branches          3245626 # total number of branches executed
sim_cycle                  64683646 # total simulation time in cycles
sim_IPC                      1.5460 # instructions per cycle
sim_CPI                      0.6468 # cycles per instruction
sim_exec_BW                  1.5466 # total instructions (mis-spec + committed) per cycle
sim_IPB                     30.8107 # instruction per branch
IFQ_count                 256270659 # cumulative IFQ occupancy
IFQ_fcount                 63431055 # cumulative IFQ full count
ifq_occupancy                3.9619 # avg IFQ occupancy (insn's)
ifq_rate                     1.5466 # avg IFQ dispatch rate (insn/cycle)
ifq_latency                  2.5617 # avg IFQ occupant latency (cycle's)
ifq_full                     0.9806 # fraction of time (cycle's) IFQ was full
RUU_count                 996484033 # cumulative RUU occupancy
RUU_fcount                 55450171 # cumulative RUU full count
ruu_occupancy               15.4055 # avg RUU occupancy (insn's)
ruu_rate                     1.5466 # avg RUU dispatch rate (insn/cycle)
ruu_latency                  9.9608 # avg RUU occupant latency (cycle's)
ruu_full                     0.8573 # fraction of time (cycle's) RUU was full
LSQ_count                 209234926 # cumulative LSQ occupancy
LSQ_fcount                  6910420 # cumulative LSQ full count
lsq_occupancy                3.2347 # avg LSQ occupancy (insn's)
lsq_rate                     1.5466 # avg LSQ dispatch rate (insn/cycle)
lsq_latency                  2.0915 # avg LSQ occupant latency (cycle's)
lsq_full                     0.1068 # fraction of time (cycle's) LSQ was full
sim_slip                 1329947207 # total number of slip cycles
avg_sim_slip                13.2995 # the average slip between issue and retirement
bpred_bimod.lookups         3245628 # total number of bpred lookups
bpred_bimod.updates         3245622 # total number of updates
bpred_bimod.addr_hits       3228905 # total number of address-predicted hits
bpred_bimod.dir_hits        3228919 # total number of direction-predicted hits (includes addr-hits)
bpred_bimod.misses            16703 # total number of misses
bpred_bimod.jr_hits          984746 # total number of address-predicted hits for JR's
bpred_bimod.jr_seen          984747 # total number of JR's seen
bpred_bimod.jr_non_ras_hits.PP            0 # total number of address-predicted hits for non-RAS JR's
bpred_bimod.jr_non_ras_seen.PP            0 # total number of non-RAS JR's seen
bpred_bimod.bpred_addr_rate    0.9948 # branch address-prediction rate (i.e., addr-hits/updates)
bpred_bimod.bpred_dir_rate    0.9949 # branch direction-prediction rate (i.e., all-hits/updates)
bpred_bimod.bpred_jr_rate    1.0000 # JR address-prediction rate (i.e., JR addr-hits/JRs seen)
bpred_bimod.bpred_jr_non_ras_rate.PP <error: divide by zero> # non-RAS JR addr-pred rate (ie, non-RAS JR hits/JRs seen)
bpred_bimod.retstack_pushes       984747 # total number of address pushed onto ret-addr stack
bpred_bimod.retstack_pops       984747 # total number of address popped off of ret-addr stack
bpred_bimod.used_ras.PP       984747 # total number of RAS predictions used
bpred_bimod.ras_hits.PP       984746 # total number of RAS hits
bpred_bimod.ras_rate.PP    1.0000 # RAS prediction rate (i.e., RAS hits/used RAS)
il1.accesses              100107161 # total number of accesses
il1.hits                  100107099 # total number of hits
il1.misses                       62 # total number of misses
il1.replacements                  0 # total number of replacements
il1.writebacks                    0 # total number of writebacks
il1.invalidations                 0 # total number of invalidations
il1.miss_rate                0.0000 # miss rate (i.e., misses/ref)
il1.repl_rate                0.0000 # replacement rate (i.e., repls/ref)
il1.wb_rate                  0.0000 # writeback rate (i.e., wrbks/ref)
il1.inv_rate                 0.0000 # invalidation rate (i.e., invs/ref)
dl1.accesses               24288826 # total number of accesses
dl1.hits                   23545621 # total number of hits
dl1.misses                   743205 # total number of misses
dl1.replacements             743077 # total number of replacements
dl1.writebacks               328059 # total number of writebacks
dl1.invalidations                 0 # total number of invalidations
dl1.miss_rate                0.0306 # miss rate (i.e., misses/ref)
dl1.repl_rate                0.0306 # replacement rate (i.e., repls/ref)
dl1.wb_rate                  0.0135 # writeback rate (i.e., wrbks/ref)
dl1.inv_rate                 0.0000 # invalidation rate (i.e., invs/ref)
ul2.accesses                1071326 # total number of accesses
ul2.hits                     936628 # total number of hits
ul2.misses                   134698 # total number of misses
ul2.replacements             130602 # total number of replacements
ul2.writebacks               130551 # total number of writebacks
ul2.invalidations                 0 # total number of invalidations
ul2.miss_rate                0.1257 # miss rate (i.e., misses/ref)
ul2.repl_rate                0.1219 # replacement rate (i.e., repls/ref)
ul2.wb_rate                  0.1219 # writeback rate (i.e., wrbks/ref)
ul2.inv_rate                 0.0000 # invalidation rate (i.e., invs/ref)
itlb.accesses             100107161 # total number of accesses
itlb.hits                 100107159 # total number of hits
itlb.misses                       2 # total number of misses
itlb.replacements                 0 # total number of replacements
itlb.writebacks                   0 # total number of writebacks
itlb.invalidations                0 # total number of invalidations
itlb.miss_rate               0.0000 # miss rate (i.e., misses/ref)
itlb.repl_rate               0.0000 # replacement rate (i.e., repls/ref)
itlb.wb_rate                 0.0000 # writeback rate (i.e., wrbks/ref)
itlb.inv_rate                0.0000 # invalidation rate (i.e., invs/ref)
dtlb.accesses              24291216 # total number of accesses
dtlb.hits                  24274010 # total number of hits
dtlb.misses                   17206 # total number of misses
dtlb.replacements             17078 # total number of replacements
dtlb.writebacks                   0 # total number of writebacks
dtlb.invalidations                0 # total number of invalidations
dtlb.miss_rate               0.0007 # miss rate (i.e., misses/ref)
dtlb.repl_rate               0.0007 # replacement rate (i.e., repls/ref)
dtlb.wb_rate                 0.0000 # writeback rate (i.e., wrbks/ref)
dtlb.inv_rate                0.0000 # invalidation rate (i.e., invs/ref)
sim_invalid_addrs                 0 # total non-speculative bogus addresses seen (debug var)
ld_text_base           0x0120000000 # program text (code) segment base
ld_text_size                 819200 # program text (code) size in bytes
ld_data_base           0x0140000000 # program initialized data segment base
ld_data_size              199810704 # program init'ed `.data' and uninit'ed `.bss' size in bytes
ld_stack_base          0x011ff9b000 # program stack segment base (highest address in stack)
ld_stack_size                 16384 # program initial stack size
ld_prog_entry          0x01200162a0 # program entry point (initial PC)
ld_environ_base        0x011ff97000 # program environment base address address
ld_target_big_endian              0 # target executable endian-ness, non-zero if big endian
mem.page_count                 3352 # total number of pages allocated
mem.page_mem                 26816k # total size of memory pages allocated
mem.ptab_misses                3558 # total first level page table misses
mem.ptab_accesses        1172930068 # total page table accesses
mem.ptab_miss_rate           0.0000 # first level page table miss rate

