
sim: ** simulation statistics **
sim_num_insn              100000001 # total number of instructions committed
sim_num_refs               35760933 # total number of loads and stores committed
sim_num_loads              26935934 # total number of loads committed
sim_num_stores         8824999.0000 # total number of stores committed
sim_num_branches           17451620 # total number of branches committed
sim_elapsed_time                 77 # total simulation time in seconds
sim_inst_rate          1298701.3117 # simulation speed (in insts/sec)
sim_total_insn            103699265 # total number of instructions executed
sim_total_refs             36744539 # total number of loads and stores executed
sim_total_loads            27720200 # total number of loads executed
sim_total_stores       9024339.0000 # total number of stores executed
sim_total_branches         18221808 # total number of branches executed
sim_cycle                  68297411 # total simulation time in cycles
sim_IPC                      1.4642 # instructions per cycle
sim_CPI                      0.6830 # cycles per instruction
sim_exec_BW                  1.5183 # total instructions (mis-spec + committed) per cycle
sim_IPB                      5.7301 # instruction per branch
IFQ_count                 220637830 # cumulative IFQ occupancy
IFQ_fcount                 50551107 # cumulative IFQ full count
ifq_occupancy                3.2305 # avg IFQ occupancy (insn's)
ifq_rate                     1.5183 # avg IFQ dispatch rate (insn/cycle)
ifq_latency                  2.1277 # avg IFQ occupant latency (cycle's)
ifq_full                     0.7402 # fraction of time (cycle's) IFQ was full
RUU_count                 918296198 # cumulative RUU occupancy
RUU_fcount                 40426574 # cumulative RUU full count
ruu_occupancy               13.4455 # avg RUU occupancy (insn's)
ruu_rate                     1.5183 # avg RUU dispatch rate (insn/cycle)
ruu_latency                  8.8554 # avg RUU occupant latency (cycle's)
ruu_full                     0.5919 # fraction of time (cycle's) RUU was full
LSQ_count                 346398630 # cumulative LSQ occupancy
LSQ_fcount                 11516456 # cumulative LSQ full count
lsq_occupancy                5.0719 # avg LSQ occupancy (insn's)
lsq_rate                     1.5183 # avg LSQ dispatch rate (insn/cycle)
lsq_latency                  3.3404 # avg LSQ occupant latency (cycle's)
lsq_full                     0.1686 # fraction of time (cycle's) LSQ was full
sim_slip                 1366231135 # total number of slip cycles
avg_sim_slip                13.6623 # the average slip between issue and retirement
bpred_bimod.lookups        18563850 # total number of bpred lookups
bpred_bimod.updates        17451616 # total number of updates
bpred_bimod.addr_hits      17130091 # total number of address-predicted hits
bpred_bimod.dir_hits       17130190 # total number of direction-predicted hits (includes addr-hits)
bpred_bimod.misses           321426 # total number of misses
bpred_bimod.jr_hits         2856719 # total number of address-predicted hits for JR's
bpred_bimod.jr_seen         2856729 # total number of JR's seen
bpred_bimod.jr_non_ras_hits.PP       291312 # total number of address-predicted hits for non-RAS JR's
bpred_bimod.jr_non_ras_seen.PP       291316 # total number of non-RAS JR's seen
bpred_bimod.bpred_addr_rate    0.9816 # branch address-prediction rate (i.e., addr-hits/updates)
bpred_bimod.bpred_dir_rate    0.9816 # branch direction-prediction rate (i.e., all-hits/updates)
bpred_bimod.bpred_jr_rate    1.0000 # JR address-prediction rate (i.e., JR addr-hits/JRs seen)
bpred_bimod.bpred_jr_non_ras_rate.PP    1.0000 # non-RAS JR addr-pred rate (ie, non-RAS JR hits/JRs seen)
bpred_bimod.retstack_pushes      2662572 # total number of address pushed onto ret-addr stack
bpred_bimod.retstack_pops      2614687 # total number of address popped off of ret-addr stack
bpred_bimod.used_ras.PP      2565413 # total number of RAS predictions used
bpred_bimod.ras_hits.PP      2565407 # total number of RAS hits
bpred_bimod.ras_rate.PP    1.0000 # RAS prediction rate (i.e., RAS hits/used RAS)
il1.accesses              106222123 # total number of accesses
il1.hits                  104745885 # total number of hits
il1.misses                  1476238 # total number of misses
il1.replacements            1476013 # total number of replacements
il1.writebacks                    0 # total number of writebacks
il1.invalidations                 0 # total number of invalidations
il1.miss_rate                0.0139 # miss rate (i.e., misses/ref)
il1.repl_rate                0.0139 # replacement rate (i.e., repls/ref)
il1.wb_rate                  0.0000 # writeback rate (i.e., wrbks/ref)
il1.inv_rate                 0.0000 # invalidation rate (i.e., invs/ref)
dl1.accesses               35545118 # total number of accesses
dl1.hits                   34384351 # total number of hits
dl1.misses                  1160767 # total number of misses
dl1.replacements            1160639 # total number of replacements
dl1.writebacks               552808 # total number of writebacks
dl1.invalidations                 0 # total number of invalidations
dl1.miss_rate                0.0327 # miss rate (i.e., misses/ref)
dl1.repl_rate                0.0327 # replacement rate (i.e., repls/ref)
dl1.wb_rate                  0.0156 # writeback rate (i.e., wrbks/ref)
dl1.inv_rate                 0.0000 # invalidation rate (i.e., invs/ref)
ul2.accesses                3189813 # total number of accesses
ul2.hits                    3093350 # total number of hits
ul2.misses                    96463 # total number of misses
ul2.replacements              92367 # total number of replacements
ul2.writebacks                91423 # total number of writebacks
ul2.invalidations                 0 # total number of invalidations
ul2.miss_rate                0.0302 # miss rate (i.e., misses/ref)
ul2.repl_rate                0.0290 # replacement rate (i.e., repls/ref)
ul2.wb_rate                  0.0287 # writeback rate (i.e., wrbks/ref)
ul2.inv_rate                 0.0000 # invalidation rate (i.e., invs/ref)
itlb.accesses             106222123 # total number of accesses
itlb.hits                 106222107 # total number of hits
itlb.misses                      16 # total number of misses
itlb.replacements                 0 # total number of replacements
itlb.writebacks                   0 # total number of writebacks
itlb.invalidations                0 # total number of invalidations
itlb.miss_rate               0.0000 # miss rate (i.e., misses/ref)
itlb.repl_rate               0.0000 # replacement rate (i.e., repls/ref)
itlb.wb_rate                 0.0000 # writeback rate (i.e., wrbks/ref)
itlb.inv_rate                0.0000 # invalidation rate (i.e., invs/ref)
dtlb.accesses              36239390 # total number of accesses
dtlb.hits                  36234084 # total number of hits
dtlb.misses                    5306 # total number of misses
dtlb.replacements              5178 # total number of replacements
dtlb.writebacks                   0 # total number of writebacks
dtlb.invalidations                0 # total number of invalidations
dtlb.miss_rate               0.0001 # miss rate (i.e., misses/ref)
dtlb.repl_rate               0.0001 # replacement rate (i.e., repls/ref)
dtlb.wb_rate                 0.0000 # writeback rate (i.e., wrbks/ref)
dtlb.inv_rate                0.0000 # invalidation rate (i.e., invs/ref)
sim_invalid_addrs                 0 # total non-speculative bogus addresses seen (debug var)
ld_text_base           0x0120000000 # program text (code) segment base
ld_text_size                 163840 # program text (code) size in bytes
ld_data_base           0x0140000000 # program initialized data segment base
ld_data_size                  80448 # program init'ed `.data' and uninit'ed `.bss' size in bytes
ld_stack_base          0x011ff9b000 # program stack segment base (highest address in stack)
ld_stack_size                 16384 # program initial stack size
ld_prog_entry          0x0120007740 # program entry point (initial PC)
ld_environ_base        0x011ff97000 # program environment base address address
ld_target_big_endian              0 # target executable endian-ness, non-zero if big endian
mem.page_count                24328 # total number of pages allocated
mem.page_mem                194624k # total size of memory pages allocated
mem.ptab_misses              532085 # total first level page table misses
mem.ptab_accesses        2142478614 # total page table accesses
mem.ptab_miss_rate           0.0002 # first level page table miss rate

